/*--------------------------------*- C++ -*----------------------------------*\
  =========                 |
  \\      /  F ield         | OpenFOAM: The Open Source CFD Toolbox
   \\    /   O peration     | Website:  https://openfoam.org
    \\  /    A nd           | Version:  12
     \\/     M anipulation  |
\*---------------------------------------------------------------------------*/
FoamFile
{
    format      ascii;
    class       dictionary;
    object      blockMeshDict;
}
// * * * * * * * * * * * * * * * * * * * * * * * * * * * * * * * * * * * * * //

convertToMeters 1;

// coodinates of BB
Xmin	-40;
Xmax	 20;
Ymin    -20;
Ymax      0;
Zmin    -15;
Zmax      5;

// drafts orh layer heights
T0   -0.500;
T1    0.221;
T2    0.371;  // heavy water line
T3    0.521;
T4    2.500;   

// number of divisions
ndX   30; // x direction
ndY   10; // y direction
ndB0  40; // block 0
ndB1  15; // block 1
ndB2  5; // block 2
ndB3  5; // block 3
ndB4  30; // block 4
ndB5  10; // block 5

vertices
(
    ($Xmin $Ymin $Zmin) // v0
    ($Xmax $Ymin $Zmin) // v1
    ($Xmax $Ymax $Zmin) // v2
    ($Xmin $Ymax $Zmin) // v3 

    ($Xmin $Ymin $T0) // v4
    ($Xmax $Ymin $T0) // v5
    ($Xmax $Ymax $T0) // v6
    ($Xmin $Ymax $T0) // v7	

    ($Xmin $Ymin $T1) // v8
    ($Xmax $Ymin $T1) // v9
    ($Xmax $Ymax $T1) // v10
    ($Xmin $Ymax $T1) // v11

    ($Xmin $Ymin $T2) // v12
    ($Xmax $Ymin $T2) // v13
    ($Xmax $Ymax $T2) // v14
    ($Xmin $Ymax $T2) // v15

    ($Xmin $Ymin $T3) // v16
    ($Xmax $Ymin $T3) // v17
    ($Xmax $Ymax $T3) // v18
    ($Xmin $Ymax $T3) // v19

    ($Xmin $Ymin $T4) // v20
    ($Xmax $Ymin $T4) // v21
    ($Xmax $Ymax $T4) // v22
    ($Xmin $Ymax $T4) // v21

    ($Xmin $Ymin $Zmax) // v24
    ($Xmax $Ymin $Zmax) // v25
    ($Xmax $Ymax $Zmax) // v26
    ($Xmin $Ymax $Zmax) // v27
);

blocks
(
    hex ( 0  1  2  3  4  5  6  7) ($ndX $ndY $ndB0) simpleGrading (1 1 0.05) // block 0
    hex ( 4  5  6  7  8  9 10 11) ($ndX $ndY $ndB1) simpleGrading (1 1 0.5)    // block 1
    hex ( 8  9 10 11 12 13 14 15) ($ndX $ndY $ndB2) simpleGrading (1 1 1)    // block 2
    hex (12 13 14 15 16 17 18 19) ($ndX $ndY $ndB3) simpleGrading (1 1 1)    // block 3
    hex (16 17 18 19 20 21 22 23) ($ndX $ndY $ndB4) simpleGrading (1 1 3)    // block 4
    hex (20 21 22 23 24 25 26 27) ($ndX $ndY $ndB5) simpleGrading (1 1 5)    // block 5
);

boundary
(
    atmosphere
    {
        type patch;
        faces
        (
            (24 25 26 27)
        );
    }
    inlet
    {
        type patch;
        faces
        (
            (1 2 6 5)
            (5 6 10 9)
            (9 10 14 13)
            (13 14 18 17)
            (17 18 22 21)
            (21 22 26 25)
        );
    }
    outlet
    {
        type patch;
        faces
        (
            (0 4 7 3)
            (4 8 11 7)
            (8 12 15 11)
            (12 16 19 15)
            (16 20 23 19)
            (20 24 27 23)
        );
    }
    bottom
    {
        type symmetryPlane;
        faces
        (
            (0 3 2 1)
        );
    }
    side
    {
        type symmetryPlane;
        faces
        (
            (0 1 5 4)
            (4 5 9 8)
            (8 9 13 12)
            (12 13 17 16)
            (16 17 21 20)
            (20 21 25 24)
        );
    }
    midPlane
    {
        type symmetryPlane;
        faces
        (
            (3 7 6 2)
            (7 11 10 6)
            (11 15 14 10)
            (15 19 18 14)
            (19 23 22 18)
            (23 27 26 22)
        );
    }
);


// ************************************************************************* //
