/*--------------------------------*- C++ -*----------------------------------*\
  =========                 |
  \\      /  F ield         | OpenFOAM: The Open Source CFD Toolbox
   \\    /   O peration     | Website:  https://openfoam.org
    \\  /    A nd           | Version:  11
     \\/     M anipulation  |
\*---------------------------------------------------------------------------*/
FoamFile
{
    format      ascii;
    class       dictionary;
    location    "system";
    object      fvSolution;
}
// * * * * * * * * * * * * * * * * * * * * * * * * * * * * * * * * * * * * * //

solvers
{
    p
    {
        solver          GAMG;
        smoother        DIC;
        tolerance       1e-6;
        relTol          0.1;
    }

    pFinal
    {
        $p;
        relTol         0;
    }

    "pcorr.*"
    {
        $p;
        tolerance       1e-2;
        relTol          0;

    }

    Phi
    {
        $p;
    }

    MeshPhi
    {
        solver          smoothSolver;
        smoother        symGaussSeidel;
        tolerance       1e-2;
        relTol          0;
    }

    "(U|k|omega|epsilon)"
    {
        solver          smoothSolver;
        smoother        symGaussSeidel;
        tolerance       1e-6;
        relTol          0.1;
    }

    "(U|k|omega|epsilon)Final"
    {
        $U;
        relTol          0;
    }

    cellDisplacement
    {
        solver          GAMG;
        smoother        GaussSeidel;
        tolerance       1e-7;
        relTol          0.01;
    }

    laplacianSchemes
    {
        //default         Gauss linear corrected;
        laplacian(diffusivity,cellDisplacement) Gauss linear corrected;
    }
}

PIMPLE
{
    correctPhi          yes;
    correctMeshPhi      yes;
    nOuterCorrectors    1;
    nCorrectors         2;
    nNonOrthogonalCorrectors 1;

    pRefCell        0;
    pRefValue       0;
}

potentialFlow
{
    nNonOrthogonalCorrectors 10;
}

relaxationFactors
{
    // Transient relaxation factors
    equations
    {
        ".*"  1;
    }
}


// ************************************************************************* //
