/*--------------------------------*- C++ -*----------------------------------*\
  =========                 |
  \\      /  F ield         | OpenFOAM: The Open Source CFD Toolbox
   \\    /   O peration     | Website:  https://openfoam.org
    \\  /    A nd           | Version:  12
     \\/     M anipulation  |
\*---------------------------------------------------------------------------*/
FoamFile
{
    format      ascii;
    class       dictionary;
    object      momentumTransport;
}
// * * * * * * * * * * * * * * * * * * * * * * * * * * * * * * * * * * * * * //

simulationType laminar;
//simulationType RAS;

laminar
{
    model           generalisedNewtonian;
    
    viscosityModel  BirdCarreau;
    nuInf           1e-5;
    k               10;
    n               0.5;
}

RAS
{
    model               kOmegaSST;
    turbulence          on;
    printCoeffs         on;

    viscosityModel      BirdCarreau;
    nuInf               1e-5;
    k                   10;
    n                   0.5;
}



// ************************************************************************* //
