/*--------------------------------*- C++ -*----------------------------------*\
  =========                 |
  \\      /  F ield         | OpenFOAM: The Open Source CFD Toolbox
   \\    /   O peration     | Website:  https://openfoam.org
    \\  /    A nd           | Version:  12
     \\/     M anipulation  |
\*---------------------------------------------------------------------------*/
FoamFile
{
    format      ascii;
    class       dictionary;
    object      controlDict;
}
// * * * * * * * * * * * * * * * * * * * * * * * * * * * * * * * * * * * * * //

application     foamRun;

solver          incompressibleFluid;

startFrom       latestTime;

startTime       0;

stopAt          endTime;

endTime         2; //!

deltaT          0.0006; //! initial time step

//writeControl    timeStep;
writeControl    runTime;

writeInterval   0.05; //!

purgeWrite      0;

writeFormat     ascii;

writePrecision   8;

writeCompression off;

timeFormat      general;

timePrecision   6;

runTimeModifiable true;

// PIMPLE does not need it
// use it for PISO algorithm step, can be above 1
// test Euler and CrankNicolson time discretisation!
adjustTimeStep  yes; // time adaptive scheme ON (use CFL limit)
maxCo           1;   // CFL number


// ************************************************************************* //
